#------------------------------------------------------------------------------
# CRYSTAL DATA
#------------------------------------------------------------------------------
# Sourced from the American Mineralogist Crystal Structure Database
# Original Publication: Sadanaga, R. and Sueno, S. (1967) Mineralogical Journal, 5, 124-148.
# Title: X-ray study on the alpha-beta transition of Ag2S
# Database ID: AMCSD 0000392
#------------------------------------------------------------------------------

data_acanthite
_audit_creation_method    'Generated from reference data'

_cell_length_a            4.229
_cell_length_b            6.931
_cell_length_c            7.862
_cell_angle_alpha         90.0
_cell_angle_beta          99.61
_cell_angle_gamma         90.0

_symmetry_space_group_name_H-M    'P 1 21/c 1'
_symmetry_Int_Tables_number       14

loop_
  _atom_site_label
  _atom_site_type_symbol
  _atom_site_fract_x
  _atom_site_fract_y
  _atom_site_fract_z
  _atom_site_occupancy
  _atom_site_B_iso_or_equiv
  Ag1   Ag   0.478   0.655   0.158   1.0   1.30
  Ag2   Ag   0.245   0.093   0.219   1.0   2.69
  S1    S    0.222   0.316   0.015   1.0   0.72

#------------------------------------------------------------------------------
# END OF FILE
#------------------------------------------------------------------------------
