#------------------------------------------------------------------------------
# CRYSTAL DATA
#------------------------------------------------------------------------------
# Data from the American Mineralogist Crystal Structure Database
# Original Publication: Wyckoff, R. W. G. (1963). Crystal Structures, second edition,
# a series of volumes. Interscience Publishers, New York, New York.
# Database ID: AMCSD 0018018
#------------------------------------------------------------------------------

data_chlorargyrite
_audit_creation_method    'Generated from reference data'

_cell_length_a            5.556
_cell_length_b            5.556
_cell_length_c            5.556
_cell_angle_alpha         90.0
_cell_angle_beta          90.0
_cell_angle_gamma         90.0

_symmetry_space_group_name_H-M    'F m -3 m'
_symmetry_Int_Tables_number       225

loop_
  _atom_site_label
  _atom_site_type_symbol
  _atom_site_fract_x
  _atom_site_fract_y
  _atom_site_fract_z
  _atom_site_occupancy
  Ag   Ag   0.00000   0.00000   0.00000   1.0
  Cl   Cl   0.50000   0.50000   0.50000   1.0

#------------------------------------------------------------------------------
# END OF FILE
#------------------------------------------------------------------------------
