#------------------------------------------------------------------------------
# CRYSTAL DATA
#------------------------------------------------------------------------------
# Sourced from the American Mineralogist Crystal Structure Database
# Original Publication: Engel, P., and Nowacki, W. (1966) Die verfeinerung der 
# kristallstruktur von proustit, Ag3AsS3, und pyragyrit, Ag3SbS3.
# Neues Jahrbuch fur Mineralogie, Monatshefte, 1966, 181-184.
# Database ID: AMCSD 0004505
#------------------------------------------------------------------------------

data_pyrargyrite
_audit_creation_method    'Generated from reference data'

_cell_length_a            11.047
_cell_length_b            11.047
_cell_length_c            8.719
_cell_angle_alpha         90.0
_cell_angle_beta          90.0
_cell_angle_gamma         120.0

_symmetry_space_group_name_H-M    'R 3 c'
_symmetry_Int_Tables_number       161

# Using hexagonal setting for the rhombohedral lattice

loop_
  _atom_site_label
  _atom_site_type_symbol
  _atom_site_fract_x
  _atom_site_fract_y
  _atom_site_fract_z
  _atom_site_occupancy
  _atom_site_B_iso_or_equiv
  Ag1   Ag   0.2452   0.1235   0.5510   1.0   .
  Sb1   Sb   0.0000   0.0000   0.0000   1.0   .
  S1    S    0.1580   0.2185   0.1105   1.0   .

#------------------------------------------------------------------------------
# END OF FILE
#------------------------------------------------------------------------------
